object.cnt: written by SWAT+ editor v1.2.3 on 2021-01-06 15:58
name                   ls_area      tot_area       obj       hru      lhru       rtu       mfl       aqu       cha       res       rec      exco       dlr       can       pmp       out      lcha     aqu2d       hrd       wro  
demo                         0             0         0         0         0         0         0         0         0         0         0         0         0         0         0         0         0         0         0         0  
