tiledrain.str: written by SWAT+ editor v1.2.3 on 2021-01-06 15:58
name                        dp          t_fc           lag           rad          dist         drain          pump      lat_ksat  
mw24_1000           1000.00000      24.00000      96.00000     100.00000      30.00000      10.00000       1.00000       2.00000  
