time.sim: written by SWAT+ editor v1.2.3 on 2021-01-06 15:58
day_start  yrc_start   day_end   yrc_end      step  
       0      1992         0      1997         0  
