weather-sta.cli: written by SWAT+ editor v1.2.3 on 2021-01-06 15:58
name                           wgn                        pcp                        tmp                        slr                        hmd                        wnd           wnd_dir          atmo_dep  
sta1160n3736e                 null                 robpcp.pcp                 robtmp.tmp                 robsol.slr                robrhum.hmd                robwind.wnd              null              null  
