file names - file written by SWAT+ editor auto-workflow v1.0 [2021-01-06 15:58:46]
filename
robwind.wnd
